@<TRIPOS>MOLECULE
LIGAND
 57 60 0 0 0
SMALL
GASTEIGER
Energy = 0

@<TRIPOS>ATOM
      1 C1         30.8150    6.8380    9.6380 C.2     1  <1>        -0.0674
      2 C2         31.0790    7.5730    8.5640 C.2     1  <1>        -0.0180
      3 C3         32.3500    8.3670    8.5490 C.2     1  <1>         0.1787
      4 C4         33.1920    8.3840    9.7900 C.2     1  <1>        -0.0148
      5 C5         32.8600    7.6260   10.8320 C.2     1  <1>        -0.0532
      6 C6         33.7450    7.7080   12.0400 C.3     1  <1>        -0.0301
      7 C7         32.8990    8.0240   13.2700 C.3     1  <1>        -0.0432
      8 C8         31.6540    7.1500   13.3840 C.3     1  <1>         0.0003
      9 C9         30.8260    7.0610   12.1020 C.3     1  <1>         0.1526
     10 C10        31.6650    6.7140   10.8710 C.3     1  <1>         0.0443
     11 C11        29.4930    6.3260   12.2370 C.3     1  <1>         0.0910
     12 C12        28.7280    6.5700   13.5340 C.3     1  <1>        -0.0151
     13 C13        29.6260    6.4770   14.7670 C.3     1  <1>         0.0096
     14 C14        30.7830    7.4620   14.5980 C.3     1  <1>        -0.0263
     15 C15        31.3930    7.6320   15.9860 C.3     1  <1>        -0.0436
     16 C16        30.2030    7.4630   16.9260 C.3     1  <1>        -0.0071
     17 C17        29.0230    7.0530   16.0480 C.3     1  <1>         0.1340
     18 C18        30.0650    5.0310   14.9890 C.3     1  <1>        -0.0562
     19 C19        32.1830    5.2780   10.8610 C.3     1  <1>        -0.0493
     20 C20        28.0530    6.1170   16.7520 C.2     1  <1>         0.1904
     21 C21        26.5460    6.3020   16.6910 C.3     1  <1>         0.1052
     22 C22        30.0040    8.7080   17.7840 C.3     1  <1>        -0.0594
     23 F1         30.4060    8.3410   11.8910 F       1  <1>        -0.2377
     24 O1         32.6900    8.9850    7.5430 O.2     1  <1>        -0.2879
     25 O2         29.7060    4.9240   12.1580 O.3     1  <1>        -0.3886
     26 O3         28.3010    8.2390   15.7480 O.3     1  <1>        -0.3802
     27 O4         28.4710    5.1550   17.3930 O.2     1  <1>        -0.2919
     28 O5         25.9300    5.1110   16.2250 O.3     1  <1>        -0.3874
     29 H1         29.8871    6.2663    9.6238 H       1  <1>         0.0583
     30 H2         30.3917    7.5981    7.7184 H       1  <1>         0.0653
     31 H3         34.0772    9.0182    9.8384 H       1  <1>         0.0656
     32 H4         34.5450    8.4606   11.9349 H       1  <1>         0.0310
     33 H5         34.2598    6.7400   12.1780 H       1  <1>         0.0310
     34 H6         32.6007    9.0880   13.2209 H       1  <1>         0.0272
     35 H7         33.5113    7.9268   14.1848 H       1  <1>         0.0272
     36 H8         32.0685    6.1383   13.5584 H       1  <1>         0.0336
     37 H9         28.8231    6.6178   11.4042 H       1  <1>         0.0626
     38 H10        27.8861    5.8565   13.5998 H       1  <1>         0.0297
     39 H11        28.2561    7.5662   13.4621 H       1  <1>         0.0297
     40 H12        30.3328    8.4523   14.3704 H       1  <1>         0.0311
     41 H13        31.9156    8.5961   16.0963 H       1  <1>         0.0272
     42 H14        32.1495    6.8528   16.1787 H       1  <1>         0.0272
     43 H15        30.4548    6.6509   17.6324 H       1  <1>         0.0330
     44 H16        30.5949    4.8971   15.9476 H       1  <1>         0.0236
     45 H17        29.1982    4.3480   15.0042 H       1  <1>         0.0236
     46 H18        30.7634    4.6393   14.2359 H       1  <1>         0.0236
     47 H19        32.6417    4.9590   11.8102 H       1  <1>         0.0242
     48 H20        31.4194    4.5277   10.6018 H       1  <1>         0.0242
     49 H21        32.9632    5.1675   10.0851 H       1  <1>         0.0242
     50 H22        26.2313    7.1523   16.0690 H       1  <1>         0.0637
     51 H23        26.2199    6.5042   17.7271 H       1  <1>         0.0637
     52 H24        29.1110    8.6250   18.4266 H       1  <1>         0.0233
     53 H25        30.8701    8.8415   18.4555 H       1  <1>         0.0233
     54 H26        29.9119    9.6349   17.1956 H       1  <1>         0.0233
     55 H27        28.7991    4.4425   12.0762 H       1  <1>         0.2099
     56 H28        28.9369    9.0483   15.7889 H       1  <1>         0.2108
     57 H29        24.9662    5.3168   15.9256 H       1  <1>         0.2100
@<TRIPOS>BOND
     1     1     2    2
     2     1    10    1
     3     2     3    1
     4     3     4    1
     5     3    24    2
     6     4     5    2
     7     5     6    1
     8     5    10    1
     9     6     7    1
    10     7     8    1
    11     8     9    1
    12     8    14    1
    13     9    10    1
    14     9    11    1
    15     9    23    1
    16    10    19    1
    17    11    12    1
    18    11    25    1
    19    12    13    1
    20    13    14    1
    21    13    17    1
    22    13    18    1
    23    14    15    1
    24    15    16    1
    25    16    17    1
    26    16    22    1
    27    17    20    1
    28    17    26    1
    29    20    21    1
    30    20    27    2
    31    21    28    1
    32     1    29    1
    33     2    30    1
    34     4    31    1
    35     6    32    1
    36     6    33    1
    37     7    34    1
    38     7    35    1
    39     8    36    1
    40    11    37    1
    41    12    38    1
    42    12    39    1
    43    14    40    1
    44    15    41    1
    45    15    42    1
    46    16    43    1
    47    18    44    1
    48    18    45    1
    49    18    46    1
    50    19    47    1
    51    19    48    1
    52    19    49    1
    53    21    50    1
    54    21    51    1
    55    22    52    1
    56    22    53    1
    57    22    54    1
    58    25    55    1
    59    26    56    1
    60    28    57    1

